  144

Si     -0.000006    0.000003   -0.370044
Si      1.923785    1.110700    0.370048
H      -0.000005    0.000003   -1.877108
H       1.923784    1.110700    1.877111
Si      3.847545    0.000016   -0.370032
Si      5.771336    1.110713    0.370060
H       3.847546    0.000016   -1.877096
H       5.771335    1.110713    1.877123
Si      7.695096    0.000029   -0.370020
Si      9.618887    1.110726    0.370072
H       7.695097    0.000029   -1.877084
H       9.618886    1.110726    1.877135
Si     11.542647    0.000042   -0.370008
Si     13.466438    1.110739    0.370084
H      11.542648    0.000042   -1.877072
H      13.466437    1.110739    1.877147
Si     15.390198    0.000055   -0.369996
Si     17.313989    1.110752    0.370096
H      15.390199    0.000055   -1.877060
H      17.313988    1.110752    1.877159
Si     19.237749    0.000068   -0.369984
Si     21.161540    1.110765    0.370108
H      19.237750    0.000068   -1.877048
H      21.161539    1.110765    1.877171
Si     -1.923770    3.332087   -0.370056
Si      0.000021    4.442783    0.370036
H      -1.923769    3.332086   -1.877119
H       0.000020    4.442783    1.877100
Si      1.923781    3.332100   -0.370044
Si      3.847572    4.442796    0.370048
H       1.923782    3.332099   -1.877108
H       3.847571    4.442796    1.877111
Si      5.771332    3.332113   -0.370032
Si      7.695123    4.442809    0.370060
H       5.771332    3.332112   -1.877096
H       7.695122    4.442809    1.877123
Si      9.618883    3.332126   -0.370020
Si     11.542674    4.442822    0.370072
H       9.618883    3.332125   -1.877084
H      11.542673    4.442822    1.877135
Si     13.466434    3.332139   -0.370008
Si     15.390225    4.442835    0.370084
H      13.466434    3.332138   -1.877072
H      15.390224    4.442835    1.877147
Si     17.313985    3.332152   -0.369996
Si     19.237776    4.442848    0.370096
H      17.313985    3.332151   -1.877060
H      19.237775    4.442848    1.877159
Si     -3.847534    6.664170   -0.370068
Si     -1.923743    7.774866    0.370024
H      -3.847534    6.664170   -1.877131
H      -1.923744    7.774867    1.877088
Si      0.000017    6.664183   -0.370056
Si      1.923807    7.774879    0.370036
H       0.000017    6.664183   -1.877119
H       1.923807    7.774880    1.877100
Si      3.847568    6.664196   -0.370044
Si      5.771358    7.774892    0.370048
H       3.847568    6.664196   -1.877108
H       5.771358    7.774893    1.877111
Si      7.695119    6.664209   -0.370032
Si      9.618909    7.774905    0.370060
H       7.695119    6.664209   -1.877096
H       9.618909    7.774906    1.877123
Si     11.542669    6.664222   -0.370020
Si     13.466460    7.774918    0.370072
H      11.542670    6.664222   -1.877084
H      13.466460    7.774919    1.877135
Si     15.390220    6.664235   -0.370008
Si     17.314011    7.774931    0.370084
H      15.390221    6.664235   -1.877072
H      17.314011    7.774932    1.877147
Si     -5.771299    9.996253   -0.370080
Si     -3.847508   11.106950    0.370012
H      -5.771298    9.996253   -1.877143
H      -3.847508   11.106950    1.877076
Si     -1.923748    9.996266   -0.370068
Si      0.000043   11.106963    0.370024
H      -1.923747    9.996266   -1.877131
H       0.000043   11.106963    1.877088
Si      1.923803    9.996279   -0.370056
Si      3.847594   11.106976    0.370036
H       1.923804    9.996279   -1.877119
H       3.847594   11.106976    1.877100
Si      5.771354    9.996292   -0.370044
Si      7.695145   11.106989    0.370048
H       5.771355    9.996292   -1.877108
H       7.695145   11.106989    1.877111
Si      9.618905    9.996305   -0.370032
Si     11.542696   11.107002    0.370060
H       9.618906    9.996305   -1.877096
H      11.542695   11.107002    1.877123
Si     13.466456    9.996318   -0.370020
Si     15.390247   11.107015    0.370072
H      13.466457    9.996318   -1.877084
H      15.390246   11.107015    1.877135
Si     -7.695063   13.328337   -0.370092
Si     -5.771272   14.439033    0.370000
H      -7.695062   13.328336   -1.877155
H      -5.771273   14.439033    1.877064
Si     -3.847512   13.328350   -0.370080
Si     -1.923721   14.439046    0.370012
H      -3.847511   13.328349   -1.877143
H      -1.923722   14.439046    1.877076
Si      0.000039   13.328363   -0.370068
Si      1.923830   14.439059    0.370024
H       0.000040   13.328362   -1.877131
H       1.923829   14.439059    1.877088
Si      3.847590   13.328376   -0.370056
Si      5.771381   14.439072    0.370036
H       3.847591   13.328375   -1.877119
H       5.771380   14.439072    1.877100
Si      7.695141   13.328389   -0.370044
Si      9.618932   14.439085    0.370048
H       7.695142   13.328388   -1.877108
H       9.618931   14.439085    1.877111
Si     11.542692   13.328402   -0.370032
Si     13.466483   14.439098    0.370060
H      11.542693   13.328401   -1.877096
H      13.466482   14.439098    1.877123
Si     -9.618827   16.660420   -0.370104
Si     -7.695036   17.771116    0.369988
H      -9.618826   16.660420   -1.877167
H      -7.695037   17.771117    1.877052
Si     -5.771276   16.660433   -0.370092
Si     -3.847485   17.771129    0.370000
H      -5.771275   16.660433   -1.877155
H      -3.847486   17.771130    1.877064
Si     -1.923725   16.660446   -0.370080
Si      0.000066   17.771142    0.370012
H      -1.923725   16.660446   -1.877143
H       0.000065   17.771143    1.877076
Si      1.923826   16.660459   -0.370068
Si      3.847617   17.771155    0.370024
H       1.923826   16.660459   -1.877131
H       3.847616   17.771156    1.877088
Si      5.771377   16.660472   -0.370056
Si      7.695168   17.771168    0.370036
H       5.771377   16.660472   -1.877119
H       7.695167   17.771169    1.877100
Si      9.618928   16.660485   -0.370044
Si     11.542719   17.771181    0.370048
H       9.618928   16.660485   -1.877108
H      11.542718   17.771182    1.877111
